# MODFLOW-2000 Name File
LIST    6 OUTPUT.DAT
BAS6         1 SPRING.ba6
BCF6        11 SPRING.bc6
OC    22 OC.DAT
WEL   12 WEL.DAT
DRN   13 DRN.DAT
RCH   18 RCH.DAT
HFB6        26 SPRING.hf6
SIP   19 SIP.DAT
DATA(BINARY)  50 BUDGET.DAT
DATA(BINARY)  51 HEADS.DAT
DATA(BINARY)  52 DDOWN.DAT
DATA(BINARY)  32 MT3D.FLO
DIS         10 SPRING.dis
