LIST    6 OUTPUT.DAT
BAS     1 BAS.DAT
BCF   11 BCF.DAT
OC    22 OC.DAT
WEL   12 WEL.DAT
DRN   13 DRN.DAT
RCH   18 RCH.DAT
HFB   26 HFB1.DAT
PCG   23 PCG2.DAT
DATA(BINARY)  50 BUDGET.DAT
DATA(BINARY)  51 HEADS.DAT
DATA(BINARY)  52 DDOWN.DAT
DATA(BINARY)  32 MT3D.FLO
